
       XFOIL         Version 6.99

 Calculated polar for: NACA 0018

 1 1 Reynolds number fixed          Mach number fixed

 xtrf =   1.000 (top)        1.000 (bottom)
 Mach =   0.000     Re =     2.000 e 6     Ncrit =   9.000

   alpha    CL        CD       CDp       CM     Top_Xtr  Bot_Xtr
  ------ -------- --------- --------- -------- -------- --------
  -5.000  -0.5532   0.00751   0.00250  -0.0026   0.7885   0.2284
  -4.000  -0.4449   0.00709   0.00210  -0.0016   0.7267   0.2752
  -3.000  -0.3348   0.00681   0.00180  -0.0010   0.6640   0.3239
  -2.000  -0.2240   0.00659   0.00159  -0.0006   0.6022   0.3767
   0.000   0.0000   0.00643   0.00143  -0.0000   0.4856   0.4856
   1.000   0.1125   0.00647   0.00147   0.0002   0.4310   0.5423
   2.000   0.2241   0.00659   0.00159   0.0005   0.3768   0.6023
   3.000   0.3349   0.00681   0.00180   0.0010   0.3237   0.6639
   4.000   0.4450   0.00709   0.00210   0.0016   0.2752   0.7268
   5.000   0.5534   0.00751   0.00250   0.0025   0.2283   0.7884
   6.000   0.6597   0.00807   0.00304   0.0038   0.1849   0.8452
   7.000   0.7646   0.00874   0.00367   0.0052   0.1499   0.8940
   8.000   0.8655   0.00957   0.00444   0.0074   0.1204   0.9340
   9.000   0.9613   0.01049   0.00531   0.0106   0.0983   0.9663
  10.000   1.0659   0.01163   0.00636   0.0114   0.0806   0.9869
  11.000   1.1863   0.01301   0.00765   0.0082   0.0665   0.9946
  12.000   1.3001   0.01456   0.00914   0.0060   0.0563   1.0000
  13.000   1.3282   0.01583   0.01046   0.0204   0.0508   1.0000
  14.000   1.3916   0.01793   0.01259   0.0262   0.0453   1.0000
  15.000   1.4501   0.02079   0.01552   0.0310   0.0410   1.0000
  16.000   1.4992   0.02478   0.01961   0.0350   0.0374   1.0000
  17.000   1.5365   0.03032   0.02529   0.0376   0.0344   1.0000
  18.000   1.5629   0.03760   0.03277   0.0386   0.0324   1.0000
  20.000   1.5507   0.06164   0.05732   0.0345   0.0290   1.0000
  21.000   1.5071   0.07955   0.07556   0.0288   0.0277   1.0000
  22.000   1.4255   0.10379   0.10019   0.0190   0.0266   1.0000
  23.000   1.3658   0.12600   0.12277   0.0085   0.0259   1.0000
  24.000   1.3086   0.14903   0.14611  -0.0046   0.0248   1.0000
  25.000   1.2541   0.17290   0.17024  -0.0203   0.0233   1.0000
