
       XFOIL         Version 6.99

 Calculated polar for: NACA 0018

 1 1 Reynolds number fixed          Mach number fixed

 xtrf =   1.000 (top)        1.000 (bottom)
 Mach =   0.000     Re =     6.000 e 6     Ncrit =   9.000

   alpha    CL        CD       CDp       CM     Top_Xtr  Bot_Xtr
  ------ -------- --------- --------- -------- -------- --------
  -5.000  -0.5671   0.00676   0.00201   0.0003   0.6542   0.1623
  -4.000  -0.4553   0.00641   0.00168   0.0005   0.5958   0.1991
  -3.000  -0.3426   0.00614   0.00143   0.0005   0.5389   0.2423
  -2.000  -0.2288   0.00598   0.00126   0.0004   0.4844   0.2850
  -1.000  -0.1146   0.00583   0.00115   0.0002   0.4340   0.3348
   0.000   0.0000   0.00583   0.00113  -0.0000   0.3812   0.3811
   1.000   0.1146   0.00584   0.00115  -0.0003   0.3348   0.4339
   2.000   0.2288   0.00598   0.00126  -0.0004   0.2849   0.4845
   3.000   0.3426   0.00614   0.00143  -0.0006   0.2422   0.5392
   4.000   0.4554   0.00641   0.00168  -0.0005   0.1991   0.5961
   5.000   0.5672   0.00676   0.00201  -0.0003   0.1624   0.6545
   6.000   0.6780   0.00716   0.00241   0.0000   0.1306   0.7142
   7.000   0.7871   0.00765   0.00291   0.0006   0.1047   0.7743
   8.000   0.8946   0.00820   0.00348   0.0014   0.0843   0.8332
   9.000   1.0002   0.00883   0.00414   0.0026   0.0697   0.8847
  10.000   1.1026   0.00956   0.00490   0.0042   0.0583   0.9269
  11.000   1.2004   0.01037   0.00572   0.0067   0.0503   0.9605
  12.000   1.2913   0.01136   0.00669   0.0102   0.0433   0.9870
  13.000   1.3945   0.01257   0.00787   0.0105   0.0379   0.9980
  14.000   1.4670   0.01390   0.00919   0.0164   0.0338   1.0000
  15.000   1.5368   0.01561   0.01091   0.0217   0.0309   1.0000
  16.000   1.6028   0.01781   0.01316   0.0263   0.0285   1.0000
  17.000   1.6592   0.02091   0.01631   0.0306   0.0262   1.0000
  18.000   1.7054   0.02518   0.02066   0.0341   0.0243   1.0000
  19.000   1.7416   0.03081   0.02641   0.0365   0.0229   1.0000
  20.000   1.7603   0.03875   0.03450   0.0373   0.0216   1.0000
  21.000   1.7587   0.04955   0.04549   0.0363   0.0203   1.0000
  22.000   1.7406   0.06297   0.05916   0.0333   0.0198   1.0000
  23.000   1.6915   0.08082   0.07730   0.0276   0.0191   1.0000
  24.000   1.6138   0.10331   0.10012   0.0187   0.0184   1.0000
  25.000   1.5329   0.12737   0.12451   0.0069   0.0175   1.0000
