
       XFOIL         Version 6.99

 Calculated polar for: NACA 0012

 1 1 Reynolds number fixed          Mach number fixed

 xtrf =   1.000 (top)        1.000 (bottom)
 Mach =   0.000     Re =     0.500 e 6     Ncrit =   9.000

   alpha    CL        CD       CDp       CM     Top_Xtr  Bot_Xtr
  ------ -------- --------- --------- -------- -------- --------
  -4.000  -0.4799   0.00899   0.00338   0.0039   0.9858   0.3155
  -3.000  -0.3306   0.00786   0.00279  -0.0044   0.9707   0.4575
  -2.000  -0.2089   0.00696   0.00234  -0.0059   0.9352   0.5802
  -1.000  -0.1034   0.00638   0.00203  -0.0032   0.8757   0.6914
   0.000   0.0000   0.00617   0.00192  -0.0000   0.7923   0.7923
   1.000   0.1034   0.00638   0.00203   0.0032   0.6913   0.8757
   2.000   0.2089   0.00696   0.00234   0.0059   0.5803   0.9351
   3.000   0.3306   0.00786   0.00279   0.0044   0.4574   0.9707
   4.000   0.4799   0.00899   0.00338  -0.0039   0.3154   0.9858
   5.000   0.6274   0.01037   0.00414  -0.0125   0.1776   0.9985
   6.000   0.7218   0.01168   0.00508  -0.0100   0.1005   1.0000
   7.000   0.8041   0.01311   0.00637  -0.0047   0.0661   1.0000
   8.000   0.8853   0.01477   0.00804   0.0007   0.0493   1.0000
   9.000   0.9621   0.01709   0.01039   0.0065   0.0393   1.0000
  10.000   1.0408   0.01960   0.01305   0.0114   0.0332   1.0000
  11.000   1.1142   0.02250   0.01612   0.0163   0.0286   1.0000
  12.000   1.1748   0.02592   0.01991   0.0225   0.0257   1.0000
  13.000   1.2071   0.03099   0.02528   0.0302   0.0235   1.0000
  14.000   1.2295   0.03769   0.03247   0.0341   0.0218   1.0000
  15.000   1.2353   0.04782   0.04296   0.0334   0.0207   1.0000
  16.000   1.2000   0.06542   0.06115   0.0268   0.0199   1.0000
  17.000   1.1328   0.09157   0.08801   0.0118   0.0197   1.0000
  18.000   0.9896   0.13867   0.13589  -0.0165   0.0200   1.0000
  21.000   0.5627   0.21155   0.20932  -0.0345   0.0205   1.0000
  22.000   0.5718   0.22439   0.22218  -0.0403   0.0184   1.0000
  23.000   0.5917   0.23340   0.23123  -0.0444   0.0168   1.0000
  24.000   0.5998   0.24695   0.24481  -0.0507   0.0149   1.0000
  25.000   0.6174   0.25645   0.25434  -0.0551   0.0138   1.0000
