
       XFOIL         Version 6.99

 Calculated polar for: NACA 0009

 1 1 Reynolds number fixed          Mach number fixed

 xtrf =   1.000 (top)        1.000 (bottom)
 Mach =   0.000     Re =     0.500 e 6     Ncrit =   9.000

   alpha    CL        CD       CDp       CM     Top_Xtr  Bot_Xtr
  ------ -------- --------- --------- -------- -------- --------
  -5.000  -0.5741   0.01077   0.00407   0.0036   1.0000   0.0584
  -4.000  -0.4812   0.00905   0.00288   0.0067   1.0000   0.1689
  -3.000  -0.3860   0.00756   0.00227   0.0091   1.0000   0.3853
  -2.000  -0.2615   0.00646   0.00203   0.0056   0.9925   0.6128
  -1.000  -0.1143   0.00560   0.00189  -0.0015   0.9705   0.8033
   0.000   0.0000   0.00530   0.00185  -0.0000   0.9134   0.9135
   1.000   0.1144   0.00560   0.00189   0.0015   0.8033   0.9705
   2.000   0.2615   0.00646   0.00203  -0.0056   0.6128   0.9925
   3.000   0.3860   0.00756   0.00227  -0.0091   0.3853   1.0000
   4.000   0.4811   0.00905   0.00288  -0.0067   0.1688   1.0000
   5.000   0.5741   0.01077   0.00407  -0.0036   0.0584   1.0000
   6.000   0.6668   0.01267   0.00600  -0.0000   0.0352   1.0000
   7.000   0.7595   0.01499   0.00849   0.0033   0.0261   1.0000
   8.000   0.8497   0.01827   0.01205   0.0066   0.0208   1.0000
   9.000   0.9370   0.02229   0.01642   0.0097   0.0177   1.0000
  10.000   1.0059   0.02940   0.02452   0.0144   0.0154   1.0000
  11.000   1.0412   0.03878   0.03489   0.0202   0.0142   1.0000
  12.000   0.7849   0.10585   0.10360  -0.0142   0.0180   1.0000
